*LTspice
*
*MAX44285H
*Dual-Channel, High-Precision, High-Voltage, Current-Sense Amplifier
*AE01001280
*
*netlist
.include MAX44285H.cir
*
*params
.param LOAD1=0.5
.param LOAD2=0.5
.param VSOURCE=76
.param VSUPPLY=5
.param RSNS1=0.025
.param RSNS2=0.025
.param RLPF1=100
.param RLPF2=100
*
*load regulation
.dc I1 0 {LOAD1} 0.1 I2 {LOAD2} 0 0.1
*
.backanno
.op
